ROMS/TOMS Framework: January 4, 2012
===================

Copyright (c) 2002-2012 The ROMS/TOMS Group
  Licensed under a MIT/X style license
  See License_ROMS.txt

svn: $HeadURL: https://www.myroms.org/svn/cstm/branches/aretxabaleta/code_2012_urta/ROMS/Version $
svn: $LastChangedBy: arango $
svn: $LastChangedRevision: 2235 $
svn: $LastChangedDate: 2012-01-04 13:50:27 -0500 (Wed, 04 Jan 2012) $
